{"directed": true, "multigraph": false, "graph": {"proto_idx": 485, "sentences": ["NATURAL SEAWATER-BASED PRO99 MEDIUM", "Prepare a glass filter funnel and flask by cleaning with acid and Milli-Q water.", "Filter raw seawater through 47mm Whatman GF/F stacked on top of a 47mm 0.2\u00b5m polycarbonate filter.", "Autoclave seawater in a Teflon bottle (60 minutes for 2L).", "Allow to cool overnight.", "Prepare 0.5M NH4Cl solution.", "Prepare 0.025M NaH2PO4\u00b7H2O solution.", "Prepare primary trace metal stocks.", "Prepare trace metal working stock.", "To make up the media, add following volumes of sterile nutrients and trace metal stock to one liter of the autoclaved seawater.", "NutrientVolumeFiltered Seawater 1000.0mL0.5M NH4Cl 1.6mL0.025M NaH2PO4\u00b7H2O 2.0mLTrace metal working stock 100\u00b5L.", "Store at room temperature for up to one month."]}, "nodes": [{"data": {"name": "s_0", "type": "s", "parent_type": "desc", "display_name": "60 minutes", "amr_name": "60_minutes", "node_type": "entity", "word_spans": [[3, 6], [3, 7]], "spans": [257, 267], "events": ["ev_10", "op_3"]}, "id": "s_0"}, {"data": {"name": "op_3", "type": "temp_treat_op", "parent_type": "op", "display_name": "Autoclave", "amr_name": "autoclave", "node_type": "event", "word_spans": [[3, 0]], "spans": [218, 227], "inputs": {"a": "rg_3", "site": "loc_2", "tl_setting_of_enum": "s_0"}, "outputs": ["loc_2"], "step": 57}, "id": "op_3"}, {"data": {"name": "rg_4", "type": "rg", "parent_type": "obj", "display_name": "NH4Cl solution", "amr_name": "nh4cl_solution", "node_type": "entity", "word_spans": [[5, 2], [5, 3]], "spans": [317, 331], "events": ["op_5", "op_6", "ev_15", "op_9", "op_10"]}, "id": "rg_4"}, {"data": {"name": "op_5", "type": "create_op", "parent_type": "op", "display_name": "Prepare", "amr_name": "s5_w0_prepare", "node_type": "event", "word_spans": [[5, 0]], "spans": [304, 311], "inputs": {"a": "rg_4", "site": "loc_2"}, "outputs": ["loc_2"], "step": 67}, "id": "op_5"}, {"data": {"name": "m_3", "type": "m", "parent_type": "s", "display_name": "2L", "amr_name": "2l", "node_type": "entity", "word_spans": [[3, 9]], "spans": [272, 274], "events": ["ev_4", "op_3", "op_4", "op_5", "op_6", "ev_15", "op_9", "op_10"]}, "id": "m_3"}, {"data": {"name": "loc_2", "type": "loc", "parent_type": "obj", "display_name": "Teflon bottle", "amr_name": "teflon_bottle", "node_type": "entity", "word_spans": [[3, 4], [3, 5]], "spans": [242, 255], "events": ["op_3", "op_4", "op_5", "op_6", "ev_15", "op_9", "op_10"]}, "id": "loc_2"}, {"data": {"name": "op_9", "type": "transfer_op", "parent_type": "op", "display_name": "add", "amr_name": "add", "node_type": "event", "word_spans": [[9, 5]], "spans": [467, 470], "inputs": {"a": "rg_9", "b": "rg_10", "site": "rg_11"}, "outputs": ["rg_11"], "step": 96}, "id": "op_9"}, {"data": {"name": "op_10", "type": "temp_treat_op", "parent_type": "op", "display_name": "Store", "amr_name": "store", "node_type": "event", "word_spans": [[11, 0]], "spans": [696, 701], "inputs": {"a": "rg_11", "tl_setting_of_enum": "s_3"}, "outputs": ["rg_11"], "step": 100}, "id": "op_10"}, {"data": {"name": "op_6", "type": "create_op", "parent_type": "op", "display_name": "Prepare", "amr_name": "s6_w0_prepare", "node_type": "event", "word_spans": [[6, 0]], "spans": [334, 341], "inputs": {"a": "rg_5", "site": "loc_2"}, "outputs": ["loc_2"], "step": 73}, "id": "op_6"}, {"data": {"name": "ev_15", "type": "co_ref_of", "parent_type": "im_ev", "display_name": "ev_15", "amr_name": "ev_15", "node_type": "event", "word_spans": [], "spans": [], "inputs": {"a": "loc_2", "b": "rg_11"}, "outputs": ["rg_11"], "step": 85}, "id": "ev_15"}, {"data": {"name": "mod_2", "type": "mod", "parent_type": "desc", "display_name": "autoclaved", "amr_name": "autoclaved", "node_type": "entity", "word_spans": [[9, 20]], "spans": [552, 562], "events": ["ev_12", "ev_15", "op_9", "op_10"]}, "id": "mod_2"}, {"data": {"name": "rg_11", "type": "rg", "parent_type": "obj", "display_name": "seawater", "amr_name": "s9_w21_seawater", "node_type": "entity", "word_spans": [[9, 21]], "spans": [563, 571], "events": ["ev_15", "op_9", "op_10"]}, "id": "rg_11"}, {"data": {"name": "s_1", "type": "s", "parent_type": "desc", "display_name": "overnight", "amr_name": "overnight", "node_type": "entity", "word_spans": [[4, 3]], "spans": [292, 301], "events": ["ev_13", "op_4"]}, "id": "s_1"}, {"data": {"name": "op_4", "type": "temp_treat_op", "parent_type": "op", "display_name": "cool", "amr_name": "cool", "node_type": "event", "word_spans": [[4, 2]], "spans": [287, 291], "inputs": {"a": "loc_2", "tl_setting_of_enum": "s_1"}, "outputs": ["loc_2"], "step": 61}, "id": "op_4"}, {"data": {"name": "rg_10", "type": "rg", "parent_type": "obj", "display_name": "trace metal stock", "amr_name": "trace_metal_stock", "node_type": "entity", "word_spans": [[9, 12], [9, 13], [9, 14]], "spans": [514, 531], "events": ["ev_16", "op_9", "op_10"]}, "id": "rg_10"}, {"data": {"name": "ev_16", "type": "co_ref_of", "parent_type": "im_ev", "display_name": "ev_16", "amr_name": "ev_16", "node_type": "event", "word_spans": [], "spans": [], "inputs": {"a": "rg_7", "b": "rg_10"}, "outputs": ["rg_10"], "step": 87}, "id": "ev_16"}, {"data": {"name": "loc_0", "type": "loc", "parent_type": "obj", "display_name": "flask", "amr_name": "flask", "node_type": "entity", "word_spans": [[1, 6]], "spans": [70, 75], "events": ["op_0"]}, "id": "loc_0"}, {"data": {"name": "op_0", "type": "wash_op", "parent_type": "op", "display_name": "cleaning", "amr_name": "cleaning", "node_type": "event", "word_spans": [[1, 8]], "spans": [79, 87], "inputs": {"a": "d_0", "b": "rg_0", "c": "loc_0", "tl_usage_of_enum": "rg_1"}, "outputs": ["d_0", "rg_0", "loc_0"], "step": 37}, "id": "op_0"}, {"data": {"name": "s_2", "type": "s", "parent_type": "desc", "display_name": "room temperature", "amr_name": "room_temperature", "node_type": "entity", "word_spans": [[11, 2], [11, 3]], "spans": [705, 721], "events": ["ev_0"]}, "id": "s_2"}, {"data": {"name": "mod_1", "type": "mod", "parent_type": "desc", "display_name": "sterile", "amr_name": "sterile", "node_type": "entity", "word_spans": [[9, 9]], "spans": [492, 499], "events": ["ev_9", "op_9", "op_10"]}, "id": "mod_1"}, {"data": {"name": "rg_9", "type": "rg", "parent_type": "obj", "display_name": "nutrients", "amr_name": "nutrients", "node_type": "entity", "word_spans": [[9, 10]], "spans": [500, 509], "events": ["op_9", "op_10"]}, "id": "rg_9"}, {"data": {"name": "m_6", "type": "m", "parent_type": "s", "display_name": "following volumes", "amr_name": "following_volumes", "node_type": "entity", "word_spans": [[9, 6], [9, 7]], "spans": [471, 488], "events": ["ev_8", "op_9", "op_10"]}, "id": "m_6"}, {"data": {"name": "rg_3", "type": "rg", "parent_type": "obj", "display_name": "seawater", "amr_name": "s3_w1_seawater", "node_type": "entity", "word_spans": [[3, 1]], "spans": [228, 236], "events": ["ev_14", "op_3", "op_4", "op_5", "op_6", "ev_15", "op_9", "op_10"]}, "id": "rg_3"}, {"data": {"name": "ev_14", "type": "co_ref_of", "parent_type": "im_ev", "display_name": "ev_14", "amr_name": "ev_14", "node_type": "event", "word_spans": [], "spans": [], "inputs": {"a": "rg_2", "b": "rg_3"}, "outputs": ["rg_3"], "step": 52}, "id": "ev_14"}, {"data": {"name": "op_1", "type": "default_op", "parent_type": "op", "display_name": "Filter", "amr_name": "filter", "node_type": "event", "word_spans": [[2, 0]], "spans": [118, 124], "inputs": {"a": "rg_2", "b": "d_0", "tl_usage_of_enum": "d_1"}, "outputs": ["rg_2", "d_0"], "step": 43}, "id": "op_1"}, {"data": {"name": "op_8", "type": "create_op", "parent_type": "op", "display_name": "Prepare", "amr_name": "s8_w0_prepare", "node_type": "event", "word_spans": [[8, 0]], "spans": [409, 416], "inputs": {"a": "rg_7", "b": "rg_6"}, "outputs": ["rg_7"], "step": 83}, "id": "op_8"}, {"data": {"name": "d_1", "type": "d", "parent_type": "obj", "display_name": "Whatman GF/F", "amr_name": "whatman_gf_f", "node_type": "entity", "word_spans": [[2, 5], [2, 6]], "spans": [151, 163], "events": ["ev_5", "op_1"]}, "id": "d_1"}, {"data": {"name": "m_7", "type": "m", "parent_type": "s", "display_name": "one liter", "amr_name": "one_liter", "node_type": "entity", "word_spans": [[9, 16], [9, 17]], "spans": [535, 544], "events": ["ev_11", "ev_15", "op_9", "op_10"]}, "id": "m_7"}, {"data": {"name": "rg_2", "type": "rg", "parent_type": "obj", "display_name": "seawater", "amr_name": "s2_w2_seawater", "node_type": "entity", "word_spans": [[2, 2]], "spans": [129, 137], "events": ["op_1", "ev_14", "op_3", "op_4", "op_5", "op_6", "ev_15", "op_9", "op_10"]}, "id": "rg_2"}, {"data": {"name": "rg_7", "type": "rg", "parent_type": "obj", "display_name": "trace metal working stock.", "amr_name": "trace_metal_working_stock_", "node_type": "entity", "word_spans": [[8, 1], [8, 2], [8, 3], [8, 4]], "spans": [417, 443], "events": ["op_8", "ev_16", "op_9", "op_10"]}, "id": "rg_7"}, {"data": {"name": "m_5", "type": "m", "parent_type": "s", "display_name": "0.025M", "amr_name": "0_025m", "node_type": "entity", "word_spans": [[6, 1]], "spans": [342, 348], "events": ["ev_7", "op_6", "ev_15", "op_9", "op_10"]}, "id": "m_5"}, {"data": {"name": "rg_5", "type": "rg", "parent_type": "obj", "display_name": "NaH2PO4\u00b7H2O solution", "amr_name": "nah2po4_h2o_solution", "node_type": "entity", "word_spans": [[6, 2], [6, 3]], "spans": [349, 369], "events": ["op_6", "ev_15", "op_9", "op_10"]}, "id": "rg_5"}, {"data": {"name": "mod_0", "type": "mod", "parent_type": "desc", "display_name": "raw", "amr_name": "raw", "node_type": "entity", "word_spans": [[2, 1]], "spans": [125, 128], "events": ["ev_3", "op_1", "ev_14", "op_3", "op_4", "op_5", "op_6", "ev_15", "op_9", "op_10"]}, "id": "mod_0"}, {"data": {"name": "rg_1", "type": "rg", "parent_type": "obj", "display_name": "Milli-Q water", "amr_name": "milli-q_water", "node_type": "entity", "word_spans": [[1, 12], [1, 13]], "spans": [102, 115], "events": ["ev_2", "op_0"]}, "id": "rg_1"}, {"data": {"name": "op_7", "type": "create_op", "parent_type": "op", "display_name": "Prepare", "amr_name": "s7_w0_prepare", "node_type": "event", "word_spans": [[7, 0]], "spans": [372, 379], "inputs": {"a": "rg_6"}, "outputs": ["rg_6"], "step": 77}, "id": "op_7"}, {"data": {"name": "d_0", "type": "d", "parent_type": "obj", "display_name": "glass filter funnel", "amr_name": "glass_filter_funnel", "node_type": "entity", "word_spans": [[1, 2], [1, 3], [1, 4]], "spans": [46, 65], "events": ["op_0", "op_1"]}, "id": "d_0"}, {"data": {"name": "m_4", "type": "m", "parent_type": "s", "display_name": "0.5M", "amr_name": "0_5m", "node_type": "entity", "word_spans": [[5, 1]], "spans": [312, 316], "events": ["ev_6", "op_5", "op_6", "ev_15", "op_9", "op_10"]}, "id": "m_4"}, {"data": {"name": "s_3", "type": "s", "parent_type": "desc", "display_name": "one month", "amr_name": "one_month", "node_type": "entity", "word_spans": [[11, 7], [11, 8]], "spans": [732, 741], "events": ["ev_1", "op_10"]}, "id": "s_3"}, {"data": {"name": "rg_0", "type": "rg", "parent_type": "obj", "display_name": "acid", "amr_name": "acid", "node_type": "entity", "word_spans": [[1, 10]], "spans": [93, 97], "events": ["op_0"]}, "id": "rg_0"}, {"data": {"name": "rg_6", "type": "rg", "parent_type": "obj", "display_name": "primary trace metal stocks.", "amr_name": "primary_trace_metal_stocks_", "node_type": "entity", "word_spans": [[7, 1], [7, 2], [7, 3], [7, 4]], "spans": [380, 407], "events": ["op_7", "op_8", "ev_16", "op_9", "op_10"]}, "id": "rg_6"}], "links": [{"s_0": {"name": "s_0", "display_name": "60_minutes", "slot": "setting_of", "source": "s_0", "target": "op_3"}, "source": "s_0", "target": "op_3"}, {"loc_2": {"name": "loc_2", "display_name": "teflon_bottle", "slot": "a", "source": "op_3", "target": "op_4"}, "source": "op_3", "target": "op_4"}, {"rg_4": {"name": "rg_4", "display_name": "nh4cl_solution", "slot": "a", "source": "rg_4", "target": "op_5"}, "source": "rg_4", "target": "op_5"}, {"loc_2": {"name": "loc_2", "display_name": "teflon_bottle", "slot": "site", "source": "op_5", "target": "op_6"}, "source": "op_5", "target": "op_6"}, {"m_3": {"name": "m_3", "display_name": "2l", "slot": "measure_of", "source": "m_3", "target": "loc_2"}, "source": "m_3", "target": "loc_2"}, {"loc_2": {"name": "loc_2", "display_name": "teflon_bottle", "slot": "site", "source": "loc_2", "target": "op_3"}, "source": "loc_2", "target": "op_3"}, {"rg_11": {"name": "rg_11", "display_name": "s9_w21_seawater", "slot": "a", "source": "op_9", "target": "op_10"}, "source": "op_9", "target": "op_10"}, {"loc_2": {"name": "loc_2", "display_name": "teflon_bottle", "slot": "a", "source": "op_6", "target": "ev_15"}, "source": "op_6", "target": "ev_15"}, {"rg_11": {"name": "rg_11", "display_name": "s9_w21_seawater", "slot": "site", "source": "ev_15", "target": "op_9"}, "source": "ev_15", "target": "op_9"}, {"mod_2": {"name": "mod_2", "display_name": "autoclaved", "slot": "modifier_of", "source": "mod_2", "target": "rg_11"}, "source": "mod_2", "target": "rg_11"}, {"rg_11": {"name": "rg_11", "display_name": "s9_w21_seawater", "slot": "b", "source": "rg_11", "target": "ev_15"}, "source": "rg_11", "target": "ev_15"}, {"s_1": {"name": "s_1", "display_name": "overnight", "slot": "setting_of", "source": "s_1", "target": "op_4"}, "source": "s_1", "target": "op_4"}, {"loc_2": {"name": "loc_2", "display_name": "teflon_bottle", "slot": "site", "source": "op_4", "target": "op_5"}, "source": "op_4", "target": "op_5"}, {"rg_10": {"name": "rg_10", "display_name": "trace_metal_stock", "slot": "b", "source": "rg_10", "target": "ev_16"}, "source": "rg_10", "target": "ev_16"}, {"rg_10": {"name": "rg_10", "display_name": "trace_metal_stock", "slot": "b", "source": "ev_16", "target": "op_9"}, "source": "ev_16", "target": "op_9"}, {"loc_0": {"name": "loc_0", "display_name": "flask", "slot": "c", "source": "loc_0", "target": "op_0"}, "source": "loc_0", "target": "op_0"}, {"d_0": {"name": "d_0", "display_name": "glass_filter_funnel", "slot": "b", "source": "op_0", "target": "op_1"}, "source": "op_0", "target": "op_1"}, {"s_2": {"name": "s_2", "display_name": "room_temperature", "slot": "setting_of", "source": "s_2", "target": "op_10"}, "source": "s_2", "target": "op_10"}, {"mod_1": {"name": "mod_1", "display_name": "sterile", "slot": "modifier_of", "source": "mod_1", "target": "rg_9"}, "source": "mod_1", "target": "rg_9"}, {"rg_9": {"name": "rg_9", "display_name": "nutrients", "slot": "a", "source": "rg_9", "target": "op_9"}, "source": "rg_9", "target": "op_9"}, {"m_6": {"name": "m_6", "display_name": "following_volumes", "slot": "measure_of", "source": "m_6", "target": "rg_9"}, "source": "m_6", "target": "rg_9"}, {"rg_3": {"name": "rg_3", "display_name": "s3_w1_seawater", "slot": "b", "source": "rg_3", "target": "ev_14"}, "source": "rg_3", "target": "ev_14"}, {"rg_3": {"name": "rg_3", "display_name": "s3_w1_seawater", "slot": "a", "source": "ev_14", "target": "op_3"}, "source": "ev_14", "target": "op_3"}, {"rg_2": {"name": "rg_2", "display_name": "s2_w2_seawater", "slot": "a", "source": "op_1", "target": "ev_14"}, "source": "op_1", "target": "ev_14"}, {"rg_7": {"name": "rg_7", "display_name": "trace_metal_working_stock_", "slot": "a", "source": "op_8", "target": "ev_16"}, "source": "op_8", "target": "ev_16"}, {"d_1": {"name": "d_1", "display_name": "whatman_gf_f", "slot": "usage_of", "source": "d_1", "target": "op_1"}, "source": "d_1", "target": "op_1"}, {"m_7": {"name": "m_7", "display_name": "one_liter", "slot": "measure_of", "source": "m_7", "target": "rg_11"}, "source": "m_7", "target": "rg_11"}, {"rg_2": {"name": "rg_2", "display_name": "s2_w2_seawater", "slot": "a", "source": "rg_2", "target": "op_1"}, "source": "rg_2", "target": "op_1"}, {"rg_7": {"name": "rg_7", "display_name": "trace_metal_working_stock_", "slot": "a", "source": "rg_7", "target": "op_8"}, "source": "rg_7", "target": "op_8"}, {"m_5": {"name": "m_5", "display_name": "0_025m", "slot": "measure_of", "source": "m_5", "target": "rg_5"}, "source": "m_5", "target": "rg_5"}, {"rg_5": {"name": "rg_5", "display_name": "nah2po4_h2o_solution", "slot": "a", "source": "rg_5", "target": "op_6"}, "source": "rg_5", "target": "op_6"}, {"mod_0": {"name": "mod_0", "display_name": "raw", "slot": "modifier_of", "source": "mod_0", "target": "rg_2"}, "source": "mod_0", "target": "rg_2"}, {"rg_1": {"name": "rg_1", "display_name": "milli-q_water", "slot": "usage_of", "source": "rg_1", "target": "op_0"}, "source": "rg_1", "target": "op_0"}, {"rg_6": {"name": "rg_6", "display_name": "primary_trace_metal_stocks_", "slot": "b", "source": "op_7", "target": "op_8"}, "source": "op_7", "target": "op_8"}, {"d_0": {"name": "d_0", "display_name": "glass_filter_funnel", "slot": "a", "source": "d_0", "target": "op_0"}, "source": "d_0", "target": "op_0"}, {"m_4": {"name": "m_4", "display_name": "0_5m", "slot": "measure_of", "source": "m_4", "target": "rg_4"}, "source": "m_4", "target": "rg_4"}, {"s_3": {"name": "s_3", "display_name": "one_month", "slot": "setting_of", "source": "s_3", "target": "op_10"}, "source": "s_3", "target": "op_10"}, {"rg_0": {"name": "rg_0", "display_name": "acid", "slot": "b", "source": "rg_0", "target": "op_0"}, "source": "rg_0", "target": "op_0"}, {"rg_6": {"name": "rg_6", "display_name": "primary_trace_metal_stocks_", "slot": "a", "source": "rg_6", "target": "op_7"}, "source": "rg_6", "target": "op_7"}]}